/*--------------------------------*- C++ -*----------------------------------*\
| =========                 |                                                 |
| \\      /  F ield         | OpenFOAM: The Open Source CFD Toolbox           |
|  \\    /   O peration     | Version:  v1812                                 |
|   \\  /    A nd           | Web:      www.OpenFOAM.com                      |
|    \\/     M anipulation  |                                                 |
\*---------------------------------------------------------------------------*/
FoamFile
{
    version     2.0;
    format      ascii;
    class       dictionary;
    object      blockMeshDict;
}
// * * * * * * * * * * * * * * * * * * * * * * * * * * * * * * * * * * * * * //

scale   1;

vertices
(
	(0 0 0) // 0
	(0 .02 0) // 1
	(1.8 0 0)  // 2
	(1.8 .02 0)  // 3
	(0 0 .46)  // 4
	(0 .02 .46)  // 5
	(1.8 0 .5)   // 6
	(1.8 .02 .5)   // 7
	(0 0 .5)
	(0 .02 .5)
	(1.84 0 .5)
	(1.84 .02 .5)
	(1.84 0 .46)
	(1.84 .02 .46)
);

blocks
(
   // hex (0 2 3 1 4 6 7 5) (90 1 23) simpleGrading (1 1 1)
   // hex (4 12 13 5 8 10 11 9) (92 1 2) simpleGrading (1 1 1)
    hex (0 2 3 1 8 6 7 9) (90 1 25) simpleGrading (1 1 1)
);

edges
(
);

boundary
(
    wall
    {
        type patch;
        faces
        (
          //  (2 6 7 3)
           // (0 2 3 1)
           // (10 11 9 8)
          //  (13 12 6 7)
        );
    }
    outlet
    {
        type patch;
        faces
        (
           // (12 10 11 13)
        );
    }

    inlet
    {
        type patch;
        faces
        (
           //(0 1 5 4)
         //  (5 9 8 4)
        );
    }
    side
    {
    	type empty;
    	faces
    	(
    		//(0 2 6 4)
    		//(1 3 7 5)
    	);
    }	
    
);

mergePatchPairs
(
);

// ************************************************************************* //
