/*--------------------------------*- C++ -*----------------------------------*\
  =========                 |
  \\      /  F ield         | OpenFOAM: The Open Source CFD Toolbox
   \\    /   O peration     | Website:  https://openfoam.org
    \\  /    A nd           | Version:  7  
     \\/     M anipulation  |
\*---------------------------------------------------------------------------*/
FoamFile
{
    version     2.0;
    format      ascii;
    class       dictionary;
    object      topoSetDict;
}

// * * * * * * * * * * * * * * * * * * * * * * * * * * * * * * * * * * * * * //

actions
(
    {
        name    walls;
        type    faceSet;
        action  new;
        source  patchToFace;
        sourceInfo
        {
            name rock;
        }
    }

    {
        name    walls;
        type    cellSet;
        action  new;
        source  faceToCell;
        sourceInfo
        {
            set     walls;
            option  any;
        }
    }

);

// ************************************************************************* //
