/*--------------------------------*- C++ -*----------------------------------*\
| =========                 |                                                 |
| \\      /  F ield         | OpenFOAM: The Open Source CFD Toolbox           |
|  \\    /   O peration     | Version:  3.0.1                                 |
|   \\  /    A nd           | Web:      www.OpenFOAM.org                      |
|    \\/     M anipulation  |                                                 |
\*---------------------------------------------------------------------------*/
FoamFile
{
    version     2.0;
    format      ascii;
    class       volScalarField;
    location    "0";
    object      k;
}
// * * * * * * * * * * * * * * * * * * * * * * * * * * * * * * * * * * * * * //

dimensions      [0 -2 0 0 0 0 0];

internalField   uniform 1;

boundaryField
{
    inlet
    {
        type            zeroGradient;
    }
    
    outlet
    {
        type            zeroGradient;
    }

    "(geometry|wall|wall1|wall2|slope|rock)"
    {
        type            zeroGradient;
    }
    
        frontAndBack
    {
        type            empty;
    }
}


// ************************************************************************* //
