/*--------------------------------*- C++ -*----------------------------------*\
| =========                 |                                                 |
| \\      /  F ield         | OpenFOAM: The Open Source CFD Toolbox           |
|  \\    /   O peration     | Version:  3.0.1                                 |
|   \\  /    A nd           | Web:      www.OpenFOAM.org                      |
|    \\/     M anipulation  |                                                 |
\*---------------------------------------------------------------------------*/
FoamFile
{
    version     2.0;
    format      ascii;
    class       volScalarField;
    location    "0";
    object      NO3;
}
// * * * * * * * * * * * * * * * * * * * * * * * * * * * * * * * * * * * * * //

dimensions      [1 -3 0 0 0 0 0];

internalField   uniform 0.01;

boundaryField
{
    // inlet
    // {
    //     type            uniformFixedValue;
    //     uniformValue    table
    //     (
	// 		(0 		0.01)
	// 		(3.99 	0.01)
	// 		(4.0	0.01)
	// 		(10.0 	0.01)
    //     );
    // }
    inlet
    {
        type            fixedValue;
        value           uniform .01; 
    }
    
    outlet
    {
        type            zeroGradient;
    }

    "(geometry|wall|wall1|wall2|slope|rock)"
    {
        type            zeroGradient;
    }
    
        frontAndBack
    {
        type            empty;
    }
}


// ************************************************************************* //
